* NGSPICE file created from power_stage.ext - technology: ihp-sg13cmos5l

.subckt sg13_hv_nmos_XAVYYR D0 G0 S1 G1 D2 G2 S3 G3 sub a_314_n200#
X0 S3 G2 D2 sub sg13_hv_nmos ad=0.38p pd=2.38u as=0.38p ps=2.38u w=2u l=0.5u
X1 D2 G1 S1 sub sg13_hv_nmos ad=0.38p pd=2.38u as=0.38p ps=2.38u w=2u l=0.5u
X2 S1 G0 D0 sub sg13_hv_nmos ad=0.38p pd=2.38u as=0.68p ps=4.68u w=2u l=0.5u
X3 a_314_n200# G3 S3 sub sg13_hv_nmos ad=0.68p pd=4.68u as=0.38p ps=2.38u w=2u l=0.5u
.ends

.subckt sg13_hv_nmos_3JX36Y D0 G0 S1 G1 D2 G2 S3 G3 D4 G4 S5 G5 D6 G6 S7 G7 D8 G8
+ S9 G9 D10 G10 S11 G11 D12 G12 S13 G13 D14 G14 S15 G15 D16 G16 S17 G17 D18 G18 S19
+ G19 D20 G20 S21 G21 D22 G22 S23 G23 D24 G24 S25 G25 D26 G26 S27 G27 D28 G28 S29
+ G29 D30 G30 S31 G31 D32 G32 S33 G33 D34 G34 S35 G35 D36 G36 S37 G37 D38 G38 S39
+ G39 D40 G40 S41 G41 D42 G42 S43 G43 D44 G44 S45 G45 D46 G46 S47 G47 D48 G48 S49
+ G49 D50 G50 S51 G51 D52 G52 S53 G53 D54 G54 S55 G55 D56 G56 S57 G57 D58 G58 S59
+ G59 D60 G60 S61 G61 D62 G62 S63 G63 D64 G64 S65 G65 D66 G66 S67 G67 D68 G68 S69
+ G69 D70 G70 S71 G71 D72 G72 S73 G73 D74 G74 S75 G75 D76 G76 S77 G77 D78 G78 S79
+ G79 D80 G80 S81 G81 D82 G82 S83 G83 D84 G84 S85 G85 D86 G86 S87 G87 a_7706_n500#
+ sub
X0 S27 G26 D26 sub sg13_hv_nmos ad=0.95p pd=5.38u as=0.95p ps=5.38u w=5u l=0.5u
X1 D46 G45 S45 sub sg13_hv_nmos ad=0.95p pd=5.38u as=0.95p ps=5.38u w=5u l=0.5u
X2 D8 G7 S7 sub sg13_hv_nmos ad=0.95p pd=5.38u as=0.95p ps=5.38u w=5u l=0.5u
X3 S15 G14 D14 sub sg13_hv_nmos ad=0.95p pd=5.38u as=0.95p ps=5.38u w=5u l=0.5u
X4 D42 G41 S41 sub sg13_hv_nmos ad=0.95p pd=5.38u as=0.95p ps=5.38u w=5u l=0.5u
X5 D56 G55 S55 sub sg13_hv_nmos ad=0.95p pd=5.38u as=0.95p ps=5.38u w=5u l=0.5u
X6 D74 G73 S73 sub sg13_hv_nmos ad=0.95p pd=5.38u as=0.95p ps=5.38u w=5u l=0.5u
X7 S81 G80 D80 sub sg13_hv_nmos ad=0.95p pd=5.38u as=0.95p ps=5.38u w=5u l=0.5u
X8 D6 G5 S5 sub sg13_hv_nmos ad=0.95p pd=5.38u as=0.95p ps=5.38u w=5u l=0.5u
X9 S83 G82 D82 sub sg13_hv_nmos ad=0.95p pd=5.38u as=0.95p ps=5.38u w=5u l=0.5u
X10 S19 G18 D18 sub sg13_hv_nmos ad=0.95p pd=5.38u as=0.95p ps=5.38u w=5u l=0.5u
X11 S21 G20 D20 sub sg13_hv_nmos ad=0.95p pd=5.38u as=0.95p ps=5.38u w=5u l=0.5u
X12 D26 G25 S25 sub sg13_hv_nmos ad=0.95p pd=5.38u as=0.95p ps=5.38u w=5u l=0.5u
X13 S63 G62 D62 sub sg13_hv_nmos ad=0.95p pd=5.38u as=0.95p ps=5.38u w=5u l=0.5u
X14 D68 G67 S67 sub sg13_hv_nmos ad=0.95p pd=5.38u as=0.95p ps=5.38u w=5u l=0.5u
X15 D70 G69 S69 sub sg13_hv_nmos ad=0.95p pd=5.38u as=0.95p ps=5.38u w=5u l=0.5u
X16 D12 G11 S11 sub sg13_hv_nmos ad=0.95p pd=5.38u as=0.95p ps=5.38u w=5u l=0.5u
X17 S41 G40 D40 sub sg13_hv_nmos ad=0.95p pd=5.38u as=0.95p ps=5.38u w=5u l=0.5u
X18 D82 G81 S81 sub sg13_hv_nmos ad=0.95p pd=5.38u as=0.95p ps=5.38u w=5u l=0.5u
X19 D84 G83 S83 sub sg13_hv_nmos ad=0.95p pd=5.38u as=0.95p ps=5.38u w=5u l=0.5u
X20 D32 G31 S31 sub sg13_hv_nmos ad=0.95p pd=5.38u as=0.95p ps=5.38u w=5u l=0.5u
X21 S39 G38 D38 sub sg13_hv_nmos ad=0.95p pd=5.38u as=0.95p ps=5.38u w=5u l=0.5u
X22 D48 G47 S47 sub sg13_hv_nmos ad=0.95p pd=5.38u as=0.95p ps=5.38u w=5u l=0.5u
X23 D62 G61 S61 sub sg13_hv_nmos ad=0.95p pd=5.38u as=0.95p ps=5.38u w=5u l=0.5u
X24 S13 G12 D12 sub sg13_hv_nmos ad=0.95p pd=5.38u as=0.95p ps=5.38u w=5u l=0.5u
X25 D18 G17 S17 sub sg13_hv_nmos ad=0.95p pd=5.38u as=0.95p ps=5.38u w=5u l=0.5u
X26 D20 G19 S19 sub sg13_hv_nmos ad=0.95p pd=5.38u as=0.95p ps=5.38u w=5u l=0.5u
X27 D50 G49 S49 sub sg13_hv_nmos ad=0.95p pd=5.38u as=0.95p ps=5.38u w=5u l=0.5u
X28 S69 G68 D68 sub sg13_hv_nmos ad=0.95p pd=5.38u as=0.95p ps=5.38u w=5u l=0.5u
X29 S71 G70 D70 sub sg13_hv_nmos ad=0.95p pd=5.38u as=0.95p ps=5.38u w=5u l=0.5u
X30 D76 G75 S75 sub sg13_hv_nmos ad=0.95p pd=5.38u as=0.95p ps=5.38u w=5u l=0.5u
X31 S11 G10 D10 sub sg13_hv_nmos ad=0.95p pd=5.38u as=0.95p ps=5.38u w=5u l=0.5u
X32 D40 G39 S39 sub sg13_hv_nmos ad=0.95p pd=5.38u as=0.95p ps=5.38u w=5u l=0.5u
X33 D78 G77 S77 sub sg13_hv_nmos ad=0.95p pd=5.38u as=0.95p ps=5.38u w=5u l=0.5u
X34 S33 G32 D32 sub sg13_hv_nmos ad=0.95p pd=5.38u as=0.95p ps=5.38u w=5u l=0.5u
X35 S47 G46 D46 sub sg13_hv_nmos ad=0.95p pd=5.38u as=0.95p ps=5.38u w=5u l=0.5u
X36 D58 G57 S57 sub sg13_hv_nmos ad=0.95p pd=5.38u as=0.95p ps=5.38u w=5u l=0.5u
X37 D24 G23 S23 sub sg13_hv_nmos ad=0.95p pd=5.38u as=0.95p ps=5.38u w=5u l=0.5u
X38 S31 G30 D30 sub sg13_hv_nmos ad=0.95p pd=5.38u as=0.95p ps=5.38u w=5u l=0.5u
X39 S49 G48 D48 sub sg13_hv_nmos ad=0.95p pd=5.38u as=0.95p ps=5.38u w=5u l=0.5u
X40 S65 G64 D64 sub sg13_hv_nmos ad=0.95p pd=5.38u as=0.95p ps=5.38u w=5u l=0.5u
X41 S17 G16 D16 sub sg13_hv_nmos ad=0.95p pd=5.38u as=0.95p ps=5.38u w=5u l=0.5u
X42 S77 G76 D76 sub sg13_hv_nmos ad=0.95p pd=5.38u as=0.95p ps=5.38u w=5u l=0.5u
X43 S37 G36 D36 sub sg13_hv_nmos ad=0.95p pd=5.38u as=0.95p ps=5.38u w=5u l=0.5u
X44 S57 G56 D56 sub sg13_hv_nmos ad=0.95p pd=5.38u as=0.95p ps=5.38u w=5u l=0.5u
X45 S5 G4 D4 sub sg13_hv_nmos ad=0.95p pd=5.38u as=0.95p ps=5.38u w=5u l=0.5u
X46 S23 G22 D22 sub sg13_hv_nmos ad=0.95p pd=5.38u as=0.95p ps=5.38u w=5u l=0.5u
X47 S25 G24 D24 sub sg13_hv_nmos ad=0.95p pd=5.38u as=0.95p ps=5.38u w=5u l=0.5u
X48 D30 G29 S29 sub sg13_hv_nmos ad=0.95p pd=5.38u as=0.95p ps=5.38u w=5u l=0.5u
X49 S45 G44 D44 sub sg13_hv_nmos ad=0.95p pd=5.38u as=0.95p ps=5.38u w=5u l=0.5u
X50 S59 G58 D58 sub sg13_hv_nmos ad=0.95p pd=5.38u as=0.95p ps=5.38u w=5u l=0.5u
X51 D64 G63 S63 sub sg13_hv_nmos ad=0.95p pd=5.38u as=0.95p ps=5.38u w=5u l=0.5u
X52 D66 G65 S65 sub sg13_hv_nmos ad=0.95p pd=5.38u as=0.95p ps=5.38u w=5u l=0.5u
X53 S73 G72 D72 sub sg13_hv_nmos ad=0.95p pd=5.38u as=0.95p ps=5.38u w=5u l=0.5u
X54 D38 G37 S37 sub sg13_hv_nmos ad=0.95p pd=5.38u as=0.95p ps=5.38u w=5u l=0.5u
X55 S51 G50 D50 sub sg13_hv_nmos ad=0.95p pd=5.38u as=0.95p ps=5.38u w=5u l=0.5u
X56 S53 G52 D52 sub sg13_hv_nmos ad=0.95p pd=5.38u as=0.95p ps=5.38u w=5u l=0.5u
X57 D4 G3 S3 sub sg13_hv_nmos ad=0.95p pd=5.38u as=0.95p ps=5.38u w=5u l=0.5u
X58 S29 G28 D28 sub sg13_hv_nmos ad=0.95p pd=5.38u as=0.95p ps=5.38u w=5u l=0.5u
X59 D36 G35 S35 sub sg13_hv_nmos ad=0.95p pd=5.38u as=0.95p ps=5.38u w=5u l=0.5u
X60 D60 G59 S59 sub sg13_hv_nmos ad=0.95p pd=5.38u as=0.95p ps=5.38u w=5u l=0.5u
X61 S85 G84 D84 sub sg13_hv_nmos ad=0.95p pd=5.38u as=0.95p ps=5.38u w=5u l=0.5u
X62 D2 G1 S1 sub sg13_hv_nmos ad=0.95p pd=5.38u as=0.95p ps=5.38u w=5u l=0.5u
X63 S67 G66 D66 sub sg13_hv_nmos ad=0.95p pd=5.38u as=0.95p ps=5.38u w=5u l=0.5u
X64 D72 G71 S71 sub sg13_hv_nmos ad=0.95p pd=5.38u as=0.95p ps=5.38u w=5u l=0.5u
X65 D22 G21 S21 sub sg13_hv_nmos ad=0.95p pd=5.38u as=0.95p ps=5.38u w=5u l=0.5u
X66 D52 G51 S51 sub sg13_hv_nmos ad=0.95p pd=5.38u as=0.95p ps=5.38u w=5u l=0.5u
X67 S3 G2 D2 sub sg13_hv_nmos ad=0.95p pd=5.38u as=0.95p ps=5.38u w=5u l=0.5u
X68 D10 G9 S9 sub sg13_hv_nmos ad=0.95p pd=5.38u as=0.95p ps=5.38u w=5u l=0.5u
X69 D28 G27 S27 sub sg13_hv_nmos ad=0.95p pd=5.38u as=0.95p ps=5.38u w=5u l=0.5u
X70 S35 G34 D34 sub sg13_hv_nmos ad=0.95p pd=5.38u as=0.95p ps=5.38u w=5u l=0.5u
X71 D44 G43 S43 sub sg13_hv_nmos ad=0.95p pd=5.38u as=0.95p ps=5.38u w=5u l=0.5u
X72 D54 G53 S53 sub sg13_hv_nmos ad=0.95p pd=5.38u as=0.95p ps=5.38u w=5u l=0.5u
X73 S61 G60 D60 sub sg13_hv_nmos ad=0.95p pd=5.38u as=0.95p ps=5.38u w=5u l=0.5u
X74 S79 G78 D78 sub sg13_hv_nmos ad=0.95p pd=5.38u as=0.95p ps=5.38u w=5u l=0.5u
X75 D86 G85 S85 sub sg13_hv_nmos ad=0.95p pd=5.38u as=0.95p ps=5.38u w=5u l=0.5u
X76 S1 G0 D0 sub sg13_hv_nmos ad=0.95p pd=5.38u as=1.7p ps=10.68u w=5u l=0.5u
X77 a_7706_n500# G87 S87 sub sg13_hv_nmos ad=1.7p pd=10.68u as=0.95p ps=5.38u w=5u l=0.5u
X78 S9 G8 D8 sub sg13_hv_nmos ad=0.95p pd=5.38u as=0.95p ps=5.38u w=5u l=0.5u
X79 D14 G13 S13 sub sg13_hv_nmos ad=0.95p pd=5.38u as=0.95p ps=5.38u w=5u l=0.5u
X80 D16 G15 S15 sub sg13_hv_nmos ad=0.95p pd=5.38u as=0.95p ps=5.38u w=5u l=0.5u
X81 D34 G33 S33 sub sg13_hv_nmos ad=0.95p pd=5.38u as=0.95p ps=5.38u w=5u l=0.5u
X82 S43 G42 D42 sub sg13_hv_nmos ad=0.95p pd=5.38u as=0.95p ps=5.38u w=5u l=0.5u
X83 S55 G54 D54 sub sg13_hv_nmos ad=0.95p pd=5.38u as=0.95p ps=5.38u w=5u l=0.5u
X84 S75 G74 D74 sub sg13_hv_nmos ad=0.95p pd=5.38u as=0.95p ps=5.38u w=5u l=0.5u
X85 D80 G79 S79 sub sg13_hv_nmos ad=0.95p pd=5.38u as=0.95p ps=5.38u w=5u l=0.5u
X86 S7 G6 D6 sub sg13_hv_nmos ad=0.95p pd=5.38u as=0.95p ps=5.38u w=5u l=0.5u
X87 S87 G86 D86 sub sg13_hv_nmos ad=0.95p pd=5.38u as=0.95p ps=5.38u w=5u l=0.5u
.ends

.subckt sg13_hv_pmos_YZSTZS D0 G0 S1 G1 D2 G2 S3 G3 a_314_n400# w_n506_n524#
X0 D2 G1 S1 w_n506_n524# sg13_hv_pmos ad=0.76p pd=4.38u as=0.76p ps=4.38u w=4u l=0.5u
X1 S1 G0 D0 w_n506_n524# sg13_hv_pmos ad=0.76p pd=4.38u as=1.36p ps=8.68u w=4u l=0.5u
X2 a_314_n400# G3 S3 w_n506_n524# sg13_hv_pmos ad=1.36p pd=8.68u as=0.76p ps=4.38u w=4u l=0.5u
X3 S3 G2 D2 w_n506_n524# sg13_hv_pmos ad=0.76p pd=4.38u as=0.76p ps=4.38u w=4u l=0.5u
.ends

.subckt sg13_hv_pmos_RQMCRC D0 G0 S1 G1 D2 G2 S3 G3 D4 G4 S5 G5 D6 G6 S7 G7 D8 G8
+ S9 G9 D10 G10 S11 G11 D12 G12 S13 G13 D14 G14 S15 G15 D16 G16 S17 G17 D18 G18 S19
+ G19 D20 G20 S21 G21 D22 G22 S23 G23 D24 G24 S25 G25 D26 G26 S27 G27 D28 G28 S29
+ G29 D30 G30 S31 G31 D32 G32 S33 G33 D34 G34 S35 G35 D36 G36 S37 G37 D38 G38 S39
+ G39 D40 G40 S41 G41 D42 G42 S43 G43 D44 G44 S45 G45 D46 G46 S47 G47 D48 G48 S49
+ G49 D50 G50 S51 G51 D52 G52 S53 G53 D54 G54 S55 G55 D56 G56 S57 G57 D58 G58 S59
+ G59 D60 G60 S61 G61 D62 G62 S63 G63 D64 G64 S65 G65 D66 G66 S67 G67 D68 G68 S69
+ G69 D70 G70 S71 G71 D72 G72 S73 G73 D74 G74 S75 G75 D76 G76 S77 G77 D78 G78 S79
+ G79 D80 G80 S81 G81 D82 G82 S83 G83 D84 G84 S85 G85 D86 G86 S87 G87 w_n7898_n1124#
+ a_7706_n1000#
X0 D30 G29 S29 w_n7898_n1124# sg13_hv_pmos ad=1.9p pd=10.38u as=1.9p ps=10.38u w=10u l=0.5u
X1 S37 G36 D36 w_n7898_n1124# sg13_hv_pmos ad=1.9p pd=10.38u as=1.9p ps=10.38u w=10u l=0.5u
X2 S45 G44 D44 w_n7898_n1124# sg13_hv_pmos ad=1.9p pd=10.38u as=1.9p ps=10.38u w=10u l=0.5u
X3 S57 G56 D56 w_n7898_n1124# sg13_hv_pmos ad=1.9p pd=10.38u as=1.9p ps=10.38u w=10u l=0.5u
X4 S59 G58 D58 w_n7898_n1124# sg13_hv_pmos ad=1.9p pd=10.38u as=1.9p ps=10.38u w=10u l=0.5u
X5 D64 G63 S63 w_n7898_n1124# sg13_hv_pmos ad=1.9p pd=10.38u as=1.9p ps=10.38u w=10u l=0.5u
X6 S5 G4 D4 w_n7898_n1124# sg13_hv_pmos ad=1.9p pd=10.38u as=1.9p ps=10.38u w=10u l=0.5u
X7 S23 G22 D22 w_n7898_n1124# sg13_hv_pmos ad=1.9p pd=10.38u as=1.9p ps=10.38u w=10u l=0.5u
X8 S25 G24 D24 w_n7898_n1124# sg13_hv_pmos ad=1.9p pd=10.38u as=1.9p ps=10.38u w=10u l=0.5u
X9 D66 G65 S65 w_n7898_n1124# sg13_hv_pmos ad=1.9p pd=10.38u as=1.9p ps=10.38u w=10u l=0.5u
X10 S73 G72 D72 w_n7898_n1124# sg13_hv_pmos ad=1.9p pd=10.38u as=1.9p ps=10.38u w=10u l=0.5u
X11 D36 G35 S35 w_n7898_n1124# sg13_hv_pmos ad=1.9p pd=10.38u as=1.9p ps=10.38u w=10u l=0.5u
X12 D38 G37 S37 w_n7898_n1124# sg13_hv_pmos ad=1.9p pd=10.38u as=1.9p ps=10.38u w=10u l=0.5u
X13 S51 G50 D50 w_n7898_n1124# sg13_hv_pmos ad=1.9p pd=10.38u as=1.9p ps=10.38u w=10u l=0.5u
X14 S53 G52 D52 w_n7898_n1124# sg13_hv_pmos ad=1.9p pd=10.38u as=1.9p ps=10.38u w=10u l=0.5u
X15 D60 G59 S59 w_n7898_n1124# sg13_hv_pmos ad=1.9p pd=10.38u as=1.9p ps=10.38u w=10u l=0.5u
X16 D2 G1 S1 w_n7898_n1124# sg13_hv_pmos ad=1.9p pd=10.38u as=1.9p ps=10.38u w=10u l=0.5u
X17 D4 G3 S3 w_n7898_n1124# sg13_hv_pmos ad=1.9p pd=10.38u as=1.9p ps=10.38u w=10u l=0.5u
X18 S29 G28 D28 w_n7898_n1124# sg13_hv_pmos ad=1.9p pd=10.38u as=1.9p ps=10.38u w=10u l=0.5u
X19 S67 G66 D66 w_n7898_n1124# sg13_hv_pmos ad=1.9p pd=10.38u as=1.9p ps=10.38u w=10u l=0.5u
X20 D72 G71 S71 w_n7898_n1124# sg13_hv_pmos ad=1.9p pd=10.38u as=1.9p ps=10.38u w=10u l=0.5u
X21 S85 G84 D84 w_n7898_n1124# sg13_hv_pmos ad=1.9p pd=10.38u as=1.9p ps=10.38u w=10u l=0.5u
X22 D22 G21 S21 w_n7898_n1124# sg13_hv_pmos ad=1.9p pd=10.38u as=1.9p ps=10.38u w=10u l=0.5u
X23 S35 G34 D34 w_n7898_n1124# sg13_hv_pmos ad=1.9p pd=10.38u as=1.9p ps=10.38u w=10u l=0.5u
X24 D44 G43 S43 w_n7898_n1124# sg13_hv_pmos ad=1.9p pd=10.38u as=1.9p ps=10.38u w=10u l=0.5u
X25 D52 G51 S51 w_n7898_n1124# sg13_hv_pmos ad=1.9p pd=10.38u as=1.9p ps=10.38u w=10u l=0.5u
X26 D54 G53 S53 w_n7898_n1124# sg13_hv_pmos ad=1.9p pd=10.38u as=1.9p ps=10.38u w=10u l=0.5u
X27 S79 G78 D78 w_n7898_n1124# sg13_hv_pmos ad=1.9p pd=10.38u as=1.9p ps=10.38u w=10u l=0.5u
X28 S1 G0 D0 w_n7898_n1124# sg13_hv_pmos ad=1.9p pd=10.38u as=3.4p ps=20.68u w=10u l=0.5u
X29 S3 G2 D2 w_n7898_n1124# sg13_hv_pmos ad=1.9p pd=10.38u as=1.9p ps=10.38u w=10u l=0.5u
X30 D10 G9 S9 w_n7898_n1124# sg13_hv_pmos ad=1.9p pd=10.38u as=1.9p ps=10.38u w=10u l=0.5u
X31 D28 G27 S27 w_n7898_n1124# sg13_hv_pmos ad=1.9p pd=10.38u as=1.9p ps=10.38u w=10u l=0.5u
X32 S61 G60 D60 w_n7898_n1124# sg13_hv_pmos ad=1.9p pd=10.38u as=1.9p ps=10.38u w=10u l=0.5u
X33 D86 G85 S85 w_n7898_n1124# sg13_hv_pmos ad=1.9p pd=10.38u as=1.9p ps=10.38u w=10u l=0.5u
X34 a_7706_n1000# G87 S87 w_n7898_n1124# sg13_hv_pmos ad=3.4p pd=20.68u as=1.9p ps=10.38u w=10u l=0.5u
X35 D16 G15 S15 w_n7898_n1124# sg13_hv_pmos ad=1.9p pd=10.38u as=1.9p ps=10.38u w=10u l=0.5u
X36 S55 G54 D54 w_n7898_n1124# sg13_hv_pmos ad=1.9p pd=10.38u as=1.9p ps=10.38u w=10u l=0.5u
X37 S75 G74 D74 w_n7898_n1124# sg13_hv_pmos ad=1.9p pd=10.38u as=1.9p ps=10.38u w=10u l=0.5u
X38 S7 G6 D6 w_n7898_n1124# sg13_hv_pmos ad=1.9p pd=10.38u as=1.9p ps=10.38u w=10u l=0.5u
X39 S9 G8 D8 w_n7898_n1124# sg13_hv_pmos ad=1.9p pd=10.38u as=1.9p ps=10.38u w=10u l=0.5u
X40 D14 G13 S13 w_n7898_n1124# sg13_hv_pmos ad=1.9p pd=10.38u as=1.9p ps=10.38u w=10u l=0.5u
X41 D34 G33 S33 w_n7898_n1124# sg13_hv_pmos ad=1.9p pd=10.38u as=1.9p ps=10.38u w=10u l=0.5u
X42 S43 G42 D42 w_n7898_n1124# sg13_hv_pmos ad=1.9p pd=10.38u as=1.9p ps=10.38u w=10u l=0.5u
X43 D80 G79 S79 w_n7898_n1124# sg13_hv_pmos ad=1.9p pd=10.38u as=1.9p ps=10.38u w=10u l=0.5u
X44 S87 G86 D86 w_n7898_n1124# sg13_hv_pmos ad=1.9p pd=10.38u as=1.9p ps=10.38u w=10u l=0.5u
X45 D46 G45 S45 w_n7898_n1124# sg13_hv_pmos ad=1.9p pd=10.38u as=1.9p ps=10.38u w=10u l=0.5u
X46 S27 G26 D26 w_n7898_n1124# sg13_hv_pmos ad=1.9p pd=10.38u as=1.9p ps=10.38u w=10u l=0.5u
X47 D74 G73 S73 w_n7898_n1124# sg13_hv_pmos ad=1.9p pd=10.38u as=1.9p ps=10.38u w=10u l=0.5u
X48 D6 G5 S5 w_n7898_n1124# sg13_hv_pmos ad=1.9p pd=10.38u as=1.9p ps=10.38u w=10u l=0.5u
X49 D8 G7 S7 w_n7898_n1124# sg13_hv_pmos ad=1.9p pd=10.38u as=1.9p ps=10.38u w=10u l=0.5u
X50 S15 G14 D14 w_n7898_n1124# sg13_hv_pmos ad=1.9p pd=10.38u as=1.9p ps=10.38u w=10u l=0.5u
X51 D42 G41 S41 w_n7898_n1124# sg13_hv_pmos ad=1.9p pd=10.38u as=1.9p ps=10.38u w=10u l=0.5u
X52 D56 G55 S55 w_n7898_n1124# sg13_hv_pmos ad=1.9p pd=10.38u as=1.9p ps=10.38u w=10u l=0.5u
X53 S81 G80 D80 w_n7898_n1124# sg13_hv_pmos ad=1.9p pd=10.38u as=1.9p ps=10.38u w=10u l=0.5u
X54 S83 G82 D82 w_n7898_n1124# sg13_hv_pmos ad=1.9p pd=10.38u as=1.9p ps=10.38u w=10u l=0.5u
X55 S21 G20 D20 w_n7898_n1124# sg13_hv_pmos ad=1.9p pd=10.38u as=1.9p ps=10.38u w=10u l=0.5u
X56 D26 G25 S25 w_n7898_n1124# sg13_hv_pmos ad=1.9p pd=10.38u as=1.9p ps=10.38u w=10u l=0.5u
X57 S63 G62 D62 w_n7898_n1124# sg13_hv_pmos ad=1.9p pd=10.38u as=1.9p ps=10.38u w=10u l=0.5u
X58 D68 G67 S67 w_n7898_n1124# sg13_hv_pmos ad=1.9p pd=10.38u as=1.9p ps=10.38u w=10u l=0.5u
X59 D70 G69 S69 w_n7898_n1124# sg13_hv_pmos ad=1.9p pd=10.38u as=1.9p ps=10.38u w=10u l=0.5u
X60 D12 G11 S11 w_n7898_n1124# sg13_hv_pmos ad=1.9p pd=10.38u as=1.9p ps=10.38u w=10u l=0.5u
X61 S19 G18 D18 w_n7898_n1124# sg13_hv_pmos ad=1.9p pd=10.38u as=1.9p ps=10.38u w=10u l=0.5u
X62 S41 G40 D40 w_n7898_n1124# sg13_hv_pmos ad=1.9p pd=10.38u as=1.9p ps=10.38u w=10u l=0.5u
X63 D82 G81 S81 w_n7898_n1124# sg13_hv_pmos ad=1.9p pd=10.38u as=1.9p ps=10.38u w=10u l=0.5u
X64 D84 G83 S83 w_n7898_n1124# sg13_hv_pmos ad=1.9p pd=10.38u as=1.9p ps=10.38u w=10u l=0.5u
X65 S39 G38 D38 w_n7898_n1124# sg13_hv_pmos ad=1.9p pd=10.38u as=1.9p ps=10.38u w=10u l=0.5u
X66 D32 G31 S31 w_n7898_n1124# sg13_hv_pmos ad=1.9p pd=10.38u as=1.9p ps=10.38u w=10u l=0.5u
X67 D48 G47 S47 w_n7898_n1124# sg13_hv_pmos ad=1.9p pd=10.38u as=1.9p ps=10.38u w=10u l=0.5u
X68 D50 G49 S49 w_n7898_n1124# sg13_hv_pmos ad=1.9p pd=10.38u as=1.9p ps=10.38u w=10u l=0.5u
X69 D62 G61 S61 w_n7898_n1124# sg13_hv_pmos ad=1.9p pd=10.38u as=1.9p ps=10.38u w=10u l=0.5u
X70 S69 G68 D68 w_n7898_n1124# sg13_hv_pmos ad=1.9p pd=10.38u as=1.9p ps=10.38u w=10u l=0.5u
X71 S11 G10 D10 w_n7898_n1124# sg13_hv_pmos ad=1.9p pd=10.38u as=1.9p ps=10.38u w=10u l=0.5u
X72 S13 G12 D12 w_n7898_n1124# sg13_hv_pmos ad=1.9p pd=10.38u as=1.9p ps=10.38u w=10u l=0.5u
X73 D18 G17 S17 w_n7898_n1124# sg13_hv_pmos ad=1.9p pd=10.38u as=1.9p ps=10.38u w=10u l=0.5u
X74 D20 G19 S19 w_n7898_n1124# sg13_hv_pmos ad=1.9p pd=10.38u as=1.9p ps=10.38u w=10u l=0.5u
X75 D40 G39 S39 w_n7898_n1124# sg13_hv_pmos ad=1.9p pd=10.38u as=1.9p ps=10.38u w=10u l=0.5u
X76 S71 G70 D70 w_n7898_n1124# sg13_hv_pmos ad=1.9p pd=10.38u as=1.9p ps=10.38u w=10u l=0.5u
X77 D76 G75 S75 w_n7898_n1124# sg13_hv_pmos ad=1.9p pd=10.38u as=1.9p ps=10.38u w=10u l=0.5u
X78 D78 G77 S77 w_n7898_n1124# sg13_hv_pmos ad=1.9p pd=10.38u as=1.9p ps=10.38u w=10u l=0.5u
X79 S31 G30 D30 w_n7898_n1124# sg13_hv_pmos ad=1.9p pd=10.38u as=1.9p ps=10.38u w=10u l=0.5u
X80 S33 G32 D32 w_n7898_n1124# sg13_hv_pmos ad=1.9p pd=10.38u as=1.9p ps=10.38u w=10u l=0.5u
X81 S47 G46 D46 w_n7898_n1124# sg13_hv_pmos ad=1.9p pd=10.38u as=1.9p ps=10.38u w=10u l=0.5u
X82 S49 G48 D48 w_n7898_n1124# sg13_hv_pmos ad=1.9p pd=10.38u as=1.9p ps=10.38u w=10u l=0.5u
X83 D58 G57 S57 w_n7898_n1124# sg13_hv_pmos ad=1.9p pd=10.38u as=1.9p ps=10.38u w=10u l=0.5u
X84 S65 G64 D64 w_n7898_n1124# sg13_hv_pmos ad=1.9p pd=10.38u as=1.9p ps=10.38u w=10u l=0.5u
X85 S17 G16 D16 w_n7898_n1124# sg13_hv_pmos ad=1.9p pd=10.38u as=1.9p ps=10.38u w=10u l=0.5u
X86 D24 G23 S23 w_n7898_n1124# sg13_hv_pmos ad=1.9p pd=10.38u as=1.9p ps=10.38u w=10u l=0.5u
X87 S77 G76 D76 w_n7898_n1124# sg13_hv_pmos ad=1.9p pd=10.38u as=1.9p ps=10.38u w=10u l=0.5u
.ends

.subckt gate_drive in_p in_n vss vdd out
Xsg13_hv_nmos_XAVYYR_0 vss in_p sg13_hv_pmos_YZSTZS_0/S1 in_p vss in_n sg13_hv_pmos_YZSTZS_0/S3
+ in_n vss vss sg13_hv_nmos_XAVYYR
Xsg13_hv_nmos_3JX36Y_0 vss sg13_hv_pmos_YZSTZS_0/S3 sg13_hv_pmos_RQMCRC_0/S1 sg13_hv_pmos_YZSTZS_0/S3
+ vss sg13_hv_pmos_RQMCRC_0/S1 sg13_hv_pmos_RQMCRC_0/S7 sg13_hv_pmos_RQMCRC_0/S1 vss
+ sg13_hv_pmos_RQMCRC_0/S1 sg13_hv_pmos_RQMCRC_0/S7 sg13_hv_pmos_RQMCRC_0/S1 vss sg13_hv_pmos_RQMCRC_0/S1
+ sg13_hv_pmos_RQMCRC_0/S7 sg13_hv_pmos_RQMCRC_0/S1 vss sg13_hv_pmos_RQMCRC_0/S7 sg13_hv_pmos_RQMCRC_0/S9
+ sg13_hv_pmos_RQMCRC_0/S7 vss sg13_hv_pmos_RQMCRC_0/S7 sg13_hv_pmos_RQMCRC_0/S9 sg13_hv_pmos_RQMCRC_0/S7
+ vss sg13_hv_pmos_RQMCRC_0/S7 sg13_hv_pmos_RQMCRC_0/S9 sg13_hv_pmos_RQMCRC_0/S7 vss
+ sg13_hv_pmos_RQMCRC_0/S7 sg13_hv_pmos_RQMCRC_0/S9 sg13_hv_pmos_RQMCRC_0/S7 vss sg13_hv_pmos_RQMCRC_0/S7
+ sg13_hv_pmos_RQMCRC_0/S9 sg13_hv_pmos_RQMCRC_0/S7 vss sg13_hv_pmos_RQMCRC_0/S7 sg13_hv_pmos_RQMCRC_0/S9
+ sg13_hv_pmos_RQMCRC_0/S7 vss sg13_hv_pmos_RQMCRC_0/S7 sg13_hv_pmos_RQMCRC_0/S9 sg13_hv_pmos_RQMCRC_0/S7
+ vss sg13_hv_pmos_RQMCRC_0/S7 sg13_hv_pmos_RQMCRC_0/S9 sg13_hv_pmos_RQMCRC_0/S7 vss
+ sg13_hv_pmos_RQMCRC_0/S7 sg13_hv_pmos_RQMCRC_0/S9 sg13_hv_pmos_RQMCRC_0/S7 vss sg13_hv_pmos_RQMCRC_0/S7
+ sg13_hv_pmos_RQMCRC_0/S9 sg13_hv_pmos_RQMCRC_0/S7 vss sg13_hv_pmos_RQMCRC_0/S9 out
+ sg13_hv_pmos_RQMCRC_0/S9 vss sg13_hv_pmos_RQMCRC_0/S9 out sg13_hv_pmos_RQMCRC_0/S9
+ vss sg13_hv_pmos_RQMCRC_0/S9 out sg13_hv_pmos_RQMCRC_0/S9 vss sg13_hv_pmos_RQMCRC_0/S9
+ out sg13_hv_pmos_RQMCRC_0/S9 vss sg13_hv_pmos_RQMCRC_0/S9 out sg13_hv_pmos_RQMCRC_0/S9
+ vss sg13_hv_pmos_RQMCRC_0/S9 out sg13_hv_pmos_RQMCRC_0/S9 vss sg13_hv_pmos_RQMCRC_0/S9
+ out sg13_hv_pmos_RQMCRC_0/S9 vss sg13_hv_pmos_RQMCRC_0/S9 out sg13_hv_pmos_RQMCRC_0/S9
+ vss sg13_hv_pmos_RQMCRC_0/S9 out sg13_hv_pmos_RQMCRC_0/S9 vss sg13_hv_pmos_RQMCRC_0/S9
+ out sg13_hv_pmos_RQMCRC_0/S9 vss sg13_hv_pmos_RQMCRC_0/S9 out sg13_hv_pmos_RQMCRC_0/S9
+ vss sg13_hv_pmos_RQMCRC_0/S9 out sg13_hv_pmos_RQMCRC_0/S9 vss sg13_hv_pmos_RQMCRC_0/S9
+ out sg13_hv_pmos_RQMCRC_0/S9 vss sg13_hv_pmos_RQMCRC_0/S9 out sg13_hv_pmos_RQMCRC_0/S9
+ vss sg13_hv_pmos_RQMCRC_0/S9 out sg13_hv_pmos_RQMCRC_0/S9 vss sg13_hv_pmos_RQMCRC_0/S9
+ out sg13_hv_pmos_RQMCRC_0/S9 vss sg13_hv_pmos_RQMCRC_0/S9 out sg13_hv_pmos_RQMCRC_0/S9
+ vss sg13_hv_pmos_RQMCRC_0/S9 out sg13_hv_pmos_RQMCRC_0/S9 vss sg13_hv_pmos_RQMCRC_0/S9
+ out sg13_hv_pmos_RQMCRC_0/S9 vss sg13_hv_pmos_RQMCRC_0/S9 out sg13_hv_pmos_RQMCRC_0/S9
+ vss sg13_hv_pmos_RQMCRC_0/S9 out sg13_hv_pmos_RQMCRC_0/S9 vss sg13_hv_pmos_RQMCRC_0/S9
+ out sg13_hv_pmos_RQMCRC_0/S9 vss sg13_hv_pmos_RQMCRC_0/S9 out sg13_hv_pmos_RQMCRC_0/S9
+ vss sg13_hv_pmos_RQMCRC_0/S9 out sg13_hv_pmos_RQMCRC_0/S9 vss sg13_hv_pmos_RQMCRC_0/S9
+ out sg13_hv_pmos_RQMCRC_0/S9 vss sg13_hv_pmos_RQMCRC_0/S9 out sg13_hv_pmos_RQMCRC_0/S9
+ vss sg13_hv_pmos_RQMCRC_0/S9 out sg13_hv_pmos_RQMCRC_0/S9 vss sg13_hv_pmos_RQMCRC_0/S9
+ out sg13_hv_pmos_RQMCRC_0/S9 vss sg13_hv_pmos_RQMCRC_0/S9 out sg13_hv_pmos_RQMCRC_0/S9
+ vss sg13_hv_pmos_RQMCRC_0/S9 out sg13_hv_pmos_RQMCRC_0/S9 vss vss sg13_hv_nmos_3JX36Y
Xsg13_hv_pmos_YZSTZS_0 vdd sg13_hv_pmos_YZSTZS_0/S3 sg13_hv_pmos_YZSTZS_0/S1 sg13_hv_pmos_YZSTZS_0/S3
+ vdd sg13_hv_pmos_YZSTZS_0/S1 sg13_hv_pmos_YZSTZS_0/S3 sg13_hv_pmos_YZSTZS_0/S1 vdd
+ vdd sg13_hv_pmos_YZSTZS
Xsg13_hv_pmos_RQMCRC_0 vdd sg13_hv_pmos_YZSTZS_0/S3 sg13_hv_pmos_RQMCRC_0/S1 sg13_hv_pmos_YZSTZS_0/S3
+ vdd sg13_hv_pmos_RQMCRC_0/S1 sg13_hv_pmos_RQMCRC_0/S7 sg13_hv_pmos_RQMCRC_0/S1 vdd
+ sg13_hv_pmos_RQMCRC_0/S1 sg13_hv_pmos_RQMCRC_0/S7 sg13_hv_pmos_RQMCRC_0/S1 vdd sg13_hv_pmos_RQMCRC_0/S1
+ sg13_hv_pmos_RQMCRC_0/S7 sg13_hv_pmos_RQMCRC_0/S1 vdd sg13_hv_pmos_RQMCRC_0/S7 sg13_hv_pmos_RQMCRC_0/S9
+ sg13_hv_pmos_RQMCRC_0/S7 vdd sg13_hv_pmos_RQMCRC_0/S7 sg13_hv_pmos_RQMCRC_0/S9 sg13_hv_pmos_RQMCRC_0/S7
+ vdd sg13_hv_pmos_RQMCRC_0/S7 sg13_hv_pmos_RQMCRC_0/S9 sg13_hv_pmos_RQMCRC_0/S7 vdd
+ sg13_hv_pmos_RQMCRC_0/S7 sg13_hv_pmos_RQMCRC_0/S9 sg13_hv_pmos_RQMCRC_0/S7 vdd sg13_hv_pmos_RQMCRC_0/S7
+ sg13_hv_pmos_RQMCRC_0/S9 sg13_hv_pmos_RQMCRC_0/S7 vdd sg13_hv_pmos_RQMCRC_0/S7 sg13_hv_pmos_RQMCRC_0/S9
+ sg13_hv_pmos_RQMCRC_0/S7 vdd sg13_hv_pmos_RQMCRC_0/S7 sg13_hv_pmos_RQMCRC_0/S9 sg13_hv_pmos_RQMCRC_0/S7
+ vdd sg13_hv_pmos_RQMCRC_0/S7 sg13_hv_pmos_RQMCRC_0/S9 sg13_hv_pmos_RQMCRC_0/S7 vdd
+ sg13_hv_pmos_RQMCRC_0/S7 sg13_hv_pmos_RQMCRC_0/S9 sg13_hv_pmos_RQMCRC_0/S7 vdd sg13_hv_pmos_RQMCRC_0/S7
+ sg13_hv_pmos_RQMCRC_0/S9 sg13_hv_pmos_RQMCRC_0/S7 vdd sg13_hv_pmos_RQMCRC_0/S9 out
+ sg13_hv_pmos_RQMCRC_0/S9 vdd sg13_hv_pmos_RQMCRC_0/S9 out sg13_hv_pmos_RQMCRC_0/S9
+ vdd sg13_hv_pmos_RQMCRC_0/S9 out sg13_hv_pmos_RQMCRC_0/S9 vdd sg13_hv_pmos_RQMCRC_0/S9
+ out sg13_hv_pmos_RQMCRC_0/S9 vdd sg13_hv_pmos_RQMCRC_0/S9 out sg13_hv_pmos_RQMCRC_0/S9
+ vdd sg13_hv_pmos_RQMCRC_0/S9 out sg13_hv_pmos_RQMCRC_0/S9 vdd sg13_hv_pmos_RQMCRC_0/S9
+ out sg13_hv_pmos_RQMCRC_0/S9 vdd sg13_hv_pmos_RQMCRC_0/S9 out sg13_hv_pmos_RQMCRC_0/S9
+ vdd sg13_hv_pmos_RQMCRC_0/S9 out sg13_hv_pmos_RQMCRC_0/S9 vdd sg13_hv_pmos_RQMCRC_0/S9
+ out sg13_hv_pmos_RQMCRC_0/S9 vdd sg13_hv_pmos_RQMCRC_0/S9 out sg13_hv_pmos_RQMCRC_0/S9
+ vdd sg13_hv_pmos_RQMCRC_0/S9 out sg13_hv_pmos_RQMCRC_0/S9 vdd sg13_hv_pmos_RQMCRC_0/S9
+ out sg13_hv_pmos_RQMCRC_0/S9 vdd sg13_hv_pmos_RQMCRC_0/S9 out sg13_hv_pmos_RQMCRC_0/S9
+ vdd sg13_hv_pmos_RQMCRC_0/S9 out sg13_hv_pmos_RQMCRC_0/S9 vdd sg13_hv_pmos_RQMCRC_0/S9
+ out sg13_hv_pmos_RQMCRC_0/S9 vdd sg13_hv_pmos_RQMCRC_0/S9 out sg13_hv_pmos_RQMCRC_0/S9
+ vdd sg13_hv_pmos_RQMCRC_0/S9 out sg13_hv_pmos_RQMCRC_0/S9 vdd sg13_hv_pmos_RQMCRC_0/S9
+ out sg13_hv_pmos_RQMCRC_0/S9 vdd sg13_hv_pmos_RQMCRC_0/S9 out sg13_hv_pmos_RQMCRC_0/S9
+ vdd sg13_hv_pmos_RQMCRC_0/S9 out sg13_hv_pmos_RQMCRC_0/S9 vdd sg13_hv_pmos_RQMCRC_0/S9
+ out sg13_hv_pmos_RQMCRC_0/S9 vdd sg13_hv_pmos_RQMCRC_0/S9 out sg13_hv_pmos_RQMCRC_0/S9
+ vdd sg13_hv_pmos_RQMCRC_0/S9 out sg13_hv_pmos_RQMCRC_0/S9 vdd sg13_hv_pmos_RQMCRC_0/S9
+ out sg13_hv_pmos_RQMCRC_0/S9 vdd sg13_hv_pmos_RQMCRC_0/S9 out sg13_hv_pmos_RQMCRC_0/S9
+ vdd sg13_hv_pmos_RQMCRC_0/S9 out sg13_hv_pmos_RQMCRC_0/S9 vdd sg13_hv_pmos_RQMCRC_0/S9
+ out sg13_hv_pmos_RQMCRC_0/S9 vdd sg13_hv_pmos_RQMCRC_0/S9 out sg13_hv_pmos_RQMCRC_0/S9
+ vdd sg13_hv_pmos_RQMCRC_0/S9 out sg13_hv_pmos_RQMCRC_0/S9 vdd vdd sg13_hv_pmos_RQMCRC
.ends

.subckt sg13cmos5l_antennanp A VDD VSS
X0 A VDD dpantenna l=1.34u w=1.05u
X1 VSS A dantenna l=0.78u w=0.78u
.ends

.subckt sg13cmos5l_decap_4 VDD VSS
X0 VDD VSS VDD VDD sg13_lv_pmos ad=0.34p pd=2.68u as=2.4331p ps=11.58u w=1u l=1u
X1 VSS VDD VSS VSS sg13_lv_nmos ad=0.1428p pd=1.52u as=1.84612p ps=9.32u w=0.42u l=1u
.ends

.subckt pmos_waffle_20 B A SUB GATE
X0 A GATE B A sg13_hv_pmos ad=5.4312p pd=15.6u as=3.052p ps=10.12u w=4.36u l=0.4u
X1 A GATE B A sg13_hv_pmos ad=5.4312p pd=15.6u as=3.052p ps=10.12u w=4.36u l=0.4u
X2 B GATE A A sg13_hv_pmos ad=5.4312p pd=15.6u as=5.4312p ps=15.6u w=4.36u l=0.4u
X3 A GATE B A sg13_hv_pmos ad=5.4312p pd=15.6u as=5.4312p ps=15.6u w=4.36u l=0.4u
X4 A GATE B A sg13_hv_pmos ad=5.4312p pd=15.6u as=5.4312p ps=15.6u w=4.36u l=0.4u
X5 B GATE A A sg13_hv_pmos ad=5.4312p pd=15.6u as=5.4312p ps=15.6u w=4.36u l=0.4u
X6 A GATE B A sg13_hv_pmos ad=5.4312p pd=15.6u as=5.4312p ps=15.6u w=4.36u l=0.4u
X7 A GATE B A sg13_hv_pmos ad=5.4312p pd=15.6u as=5.4312p ps=15.6u w=4.36u l=0.4u
X8 B GATE A A sg13_hv_pmos ad=5.4312p pd=15.6u as=5.4312p ps=15.6u w=4.36u l=0.4u
X9 B GATE A A sg13_hv_pmos ad=5.4312p pd=15.6u as=5.4312p ps=15.6u w=4.36u l=0.4u
X10 A GATE B A sg13_hv_pmos ad=5.4312p pd=15.6u as=3.052p ps=10.12u w=4.36u l=0.4u
X11 A GATE B A sg13_hv_pmos ad=5.4312p pd=15.6u as=3.052p ps=10.12u w=4.36u l=0.4u
X12 B GATE A A sg13_hv_pmos ad=5.4312p pd=15.6u as=5.4312p ps=15.6u w=4.36u l=0.4u
X13 A GATE B A sg13_hv_pmos ad=3.052p pd=10.12u as=5.4312p ps=15.6u w=4.36u l=0.4u
X14 A GATE B A sg13_hv_pmos ad=5.4312p pd=15.6u as=5.4312p ps=15.6u w=4.36u l=0.4u
X15 A GATE B A sg13_hv_pmos ad=5.4312p pd=15.6u as=5.4312p ps=15.6u w=4.36u l=0.4u
X16 B GATE A A sg13_hv_pmos ad=5.4312p pd=15.6u as=5.4312p ps=15.6u w=4.36u l=0.4u
X17 B GATE A A sg13_hv_pmos ad=5.4312p pd=15.6u as=3.052p ps=10.12u w=4.36u l=0.4u
X18 B GATE A A sg13_hv_pmos ad=5.4312p pd=15.6u as=5.4312p ps=15.6u w=4.36u l=0.4u
X19 A GATE B A sg13_hv_pmos ad=5.4312p pd=15.6u as=5.4312p ps=15.6u w=4.36u l=0.4u
X20 A GATE B A sg13_hv_pmos ad=5.4312p pd=15.6u as=5.4312p ps=15.6u w=4.36u l=0.4u
X21 B GATE A A sg13_hv_pmos ad=5.4312p pd=15.6u as=5.4312p ps=15.6u w=4.36u l=0.4u
X22 B GATE A A sg13_hv_pmos ad=5.4312p pd=15.6u as=5.4312p ps=15.6u w=4.36u l=0.4u
X23 A GATE B A sg13_hv_pmos ad=5.4312p pd=15.6u as=3.052p ps=10.12u w=4.36u l=0.4u
X24 A GATE B A sg13_hv_pmos ad=5.4312p pd=15.6u as=5.4312p ps=15.6u w=4.36u l=0.4u
X25 A GATE B A sg13_hv_pmos ad=5.4312p pd=15.6u as=5.4312p ps=15.6u w=4.36u l=0.4u
X26 A GATE B A sg13_hv_pmos ad=5.4312p pd=15.6u as=5.4312p ps=15.6u w=4.36u l=0.4u
X27 B GATE A A sg13_hv_pmos ad=3.052p pd=10.12u as=5.4312p ps=15.6u w=4.36u l=0.4u
X28 B GATE A A sg13_hv_pmos ad=5.4312p pd=15.6u as=5.4312p ps=15.6u w=4.36u l=0.4u
X29 B GATE A A sg13_hv_pmos ad=5.4312p pd=15.6u as=5.4312p ps=15.6u w=4.36u l=0.4u
X30 A GATE B A sg13_hv_pmos ad=5.4312p pd=15.6u as=5.4312p ps=15.6u w=4.36u l=0.4u
X31 A GATE B A sg13_hv_pmos ad=5.4312p pd=15.6u as=5.4312p ps=15.6u w=4.36u l=0.4u
X32 B GATE A A sg13_hv_pmos ad=5.4312p pd=15.6u as=5.4312p ps=15.6u w=4.36u l=0.4u
X33 B GATE A A sg13_hv_pmos ad=5.4312p pd=15.6u as=5.4312p ps=15.6u w=4.36u l=0.4u
X34 B GATE A A sg13_hv_pmos ad=5.4312p pd=15.6u as=5.4312p ps=15.6u w=4.36u l=0.4u
X35 A GATE B A sg13_hv_pmos ad=5.4312p pd=15.6u as=5.4312p ps=15.6u w=4.36u l=0.4u
X36 A GATE B A sg13_hv_pmos ad=5.4312p pd=15.6u as=5.4312p ps=15.6u w=4.36u l=0.4u
X37 B GATE A A sg13_hv_pmos ad=5.4312p pd=15.6u as=5.4312p ps=15.6u w=4.36u l=0.4u
X38 A GATE B A sg13_hv_pmos ad=5.4312p pd=15.6u as=5.4312p ps=15.6u w=4.36u l=0.4u
X39 A GATE B A sg13_hv_pmos ad=3.052p pd=10.12u as=5.4312p ps=15.6u w=4.36u l=0.4u
X40 B GATE A A sg13_hv_pmos ad=5.4312p pd=15.6u as=5.4312p ps=15.6u w=4.36u l=0.4u
X41 B GATE A A sg13_hv_pmos ad=5.4312p pd=15.6u as=5.4312p ps=15.6u w=4.36u l=0.4u
X42 A GATE B A sg13_hv_pmos ad=3.052p pd=10.12u as=5.4312p ps=15.6u w=4.36u l=0.4u
X43 B GATE A A sg13_hv_pmos ad=3.052p pd=10.12u as=5.4312p ps=15.6u w=4.36u l=0.4u
X44 A GATE B A sg13_hv_pmos ad=5.4312p pd=15.6u as=5.4312p ps=15.6u w=4.36u l=0.4u
X45 A GATE B A sg13_hv_pmos ad=5.4312p pd=15.6u as=5.4312p ps=15.6u w=4.36u l=0.4u
X46 B GATE A A sg13_hv_pmos ad=5.4312p pd=15.6u as=5.4312p ps=15.6u w=4.36u l=0.4u
X47 A GATE B A sg13_hv_pmos ad=5.4312p pd=15.6u as=5.4312p ps=15.6u w=4.36u l=0.4u
X48 B GATE A A sg13_hv_pmos ad=5.4312p pd=15.6u as=5.4312p ps=15.6u w=4.36u l=0.4u
X49 A GATE B A sg13_hv_pmos ad=5.4312p pd=15.6u as=5.4312p ps=15.6u w=4.36u l=0.4u
X50 B GATE A A sg13_hv_pmos ad=3.052p pd=10.12u as=5.4312p ps=15.6u w=4.36u l=0.4u
X51 B GATE A A sg13_hv_pmos ad=5.4312p pd=15.6u as=5.4312p ps=15.6u w=4.36u l=0.4u
X52 A GATE B A sg13_hv_pmos ad=5.4312p pd=15.6u as=5.4312p ps=15.6u w=4.36u l=0.4u
X53 A GATE B A sg13_hv_pmos ad=5.4312p pd=15.6u as=5.4312p ps=15.6u w=4.36u l=0.4u
X54 A GATE B A sg13_hv_pmos ad=3.052p pd=10.12u as=5.4312p ps=15.6u w=4.36u l=0.4u
X55 B GATE A A sg13_hv_pmos ad=5.4312p pd=15.6u as=5.4312p ps=15.6u w=4.36u l=0.4u
X56 A GATE B A sg13_hv_pmos ad=5.4312p pd=15.6u as=5.4312p ps=15.6u w=4.36u l=0.4u
X57 A GATE B A sg13_hv_pmos ad=5.4312p pd=15.6u as=5.4312p ps=15.6u w=4.36u l=0.4u
X58 B GATE A A sg13_hv_pmos ad=5.4312p pd=15.6u as=5.4312p ps=15.6u w=4.36u l=0.4u
X59 B GATE A A sg13_hv_pmos ad=5.4312p pd=15.6u as=5.4312p ps=15.6u w=4.36u l=0.4u
X60 A GATE B A sg13_hv_pmos ad=5.4312p pd=15.6u as=5.4312p ps=15.6u w=4.36u l=0.4u
X61 A GATE B A sg13_hv_pmos ad=5.4312p pd=15.6u as=3.052p ps=10.12u w=4.36u l=0.4u
X62 B GATE A A sg13_hv_pmos ad=3.052p pd=10.12u as=5.4312p ps=15.6u w=4.36u l=0.4u
X63 A GATE B A sg13_hv_pmos ad=5.4312p pd=15.6u as=5.4312p ps=15.6u w=4.36u l=0.4u
X64 A GATE B A sg13_hv_pmos ad=3.052p pd=10.12u as=5.4312p ps=15.6u w=4.36u l=0.4u
X65 B GATE A A sg13_hv_pmos ad=5.4312p pd=15.6u as=5.4312p ps=15.6u w=4.36u l=0.4u
X66 A GATE B A sg13_hv_pmos ad=5.4312p pd=15.6u as=5.4312p ps=15.6u w=4.36u l=0.4u
X67 B GATE A A sg13_hv_pmos ad=3.052p pd=10.12u as=5.4312p ps=15.6u w=4.36u l=0.4u